*Heading
 C:\Users\Florian\Desktop\testets\testets-VER.inp
*NODE
1, 5.5999999, 5.5999999, 9.39999962
2, 5.5999999, 5.5999999, 5.5999999
3, 5.5999999, 9.39999962, 9.39999962
4, 5.5999999, 9.39999962, 5.5999999
5, 9.39999962, 5.5999999, 9.39999962
6, 9.39999962, 5.5999999, 5.5999999
7, 9.39999962, 9.39999962, 9.39999962
8, 9.39999962, 9.39999962, 5.5999999
9, 4.5999999, 4.5999999, 10.39999962
10, 4.5999999, 4.5999999, 4.5999999
11, 4.5999999, 10.39999962, 10.39999962
12, 4.5999999, 10.39999962, 4.5999999
13, 10.39999962, 4.5999999, 4.5999999
14, 10.39999962, 4.5999999, 10.39999962
15, 10.39999962, 10.39999962, 10.39999962
16, 10.39999962, 10.39999962, 4.5999999
17, 5.5999999, 5.5999999, 6.54999983
18, 5.5999999, 5.5999999, 7.49999976
19, 5.5999999, 5.5999999, 8.44999969
20, 5.5999999, 6.54999983, 9.39999962
** ... 635 like lines cut
*NSET,NSET=Nmaxy
11, 12, 15, 16,
69, 70, 71, 72,
73, 74, 75, 76,
109, 110, 111, 112,
113, 114, 115, 116,
125, 126, 127, 128,
129, 130, 131, 132,
133, 134, 135, 136,
137, 138, 139, 140,
428, 429, 430, 431,
432, 433, 434, 435,
436, 437, 438, 439,
440, 441, 442, 443,
444, 445, 446, 447,
448, 449, 450, 451,
452, 453, 454, 455,
456, 457, 458, 459,
460, 461, 462, 463,
464, 465, 466, 467,
468, 469, 470, 471,
** ... 5 like lines cut
*NSET,NSET=Nminy
9, 10, 13, 14,
53, 54, 55, 56,
57, 58, 59, 60,
85, 86, 87, 88,
89, 90, 91, 92,
93, 94, 95, 96,
97, 98, 99, 100,
101, 102, 103, 104,
105, 106, 107, 108,
300, 301, 302, 303,
304, 305, 306, 307,
308, 309, 310, 311,
312, 313, 314, 315,
316, 317, 318, 319,
320, 321, 322, 323,
324, 325, 326, 327,
328, 329, 330, 331,
332, 333, 334, 335,
336, 337, 338, 339,
340, 341, 342, 343,
** ... 5 like lines cut
*NSET,NSET=Nminz
10, 12, 13, 16,
77, 78, 79, 80,
81, 82, 83, 84,
85, 86, 87, 88,
89, 90, 91, 92,
125, 126, 127, 128,
129, 130, 131, 132,
141, 142, 143, 144,
145, 146, 147, 148,
492, 493, 494, 495,
496, 497, 498, 499,
500, 501, 502, 503,
504, 505, 506, 507,
508, 509, 510, 511,
512, 513, 514, 515,
516, 517, 518, 519,
520, 521, 522, 523,
524, 525, 526, 527,
528, 529, 530, 531,
532, 533, 534, 535,
** ... 5 like lines cut
*NSET,NSET=Nmaxz
9, 11, 14, 15,
61, 62, 63, 64,
65, 66, 67, 68,
101, 102, 103, 104,
105, 106, 107, 108,
109, 110, 111, 112,
113, 114, 115, 116,
117, 118, 119, 120,
121, 122, 123, 124,
364, 365, 366, 367,
368, 369, 370, 371,
372, 373, 374, 375,
376, 377, 378, 379,
380, 381, 382, 383,
384, 385, 386, 387,
388, 389, 390, 391,
392, 393, 394, 395,
396, 397, 398, 399,
400, 401, 402, 403,
404, 405, 406, 407,
** ... 5 like lines cut
*NSET,NSET=Nmaxx
13, 14, 15, 16,
93, 94, 95, 96,
97, 98, 99, 100,
117, 118, 119, 120,
121, 122, 123, 124,
133, 134, 135, 136,
137, 138, 139, 140,
141, 142, 143, 144,
145, 146, 147, 148,
556, 557, 558, 559,
560, 561, 562, 563,
564, 565, 566, 567,
568, 569, 570, 571,
572, 573, 574, 575,
576, 577, 578, 579,
580, 581, 582, 583,
584, 585, 586, 587,
588, 589, 590, 591,
592, 593, 594, 595,
596, 597, 598, 599,
** ... 5 like lines cut
*NSET,NSET=Nminx
9, 10, 11, 12,
53, 54, 55, 56,
57, 58, 59, 60,
61, 62, 63, 64,
65, 66, 67, 68,
69, 70, 71, 72,
73, 74, 75, 76,
77, 78, 79, 80,
81, 82, 83, 84,
236, 237, 238, 239,
240, 241, 242, 243,
244, 245, 246, 247,
248, 249, 250, 251,
252, 253, 254, 255,
256, 257, 258, 259,
260, 261, 262, 263,
264, 265, 266, 267,
268, 269, 270, 271,
272, 273, 274, 275,
276, 277, 278, 279,
** ... 5 like lines cut
******* E L E M E N T S *************
*ELEMENT, type=C3D4, ELSET=Volume2
1403, 180, 177, 208, 625
1404, 180, 208, 209, 625
1405, 202, 235, 229, 173
1406, 177, 623, 208, 625
1407, 156, 150, 199, 627
1408, 195, 199, 150, 627
1409, 621, 624, 620, 627
1410, 225, 624, 621, 627
1411, 151, 221, 224, 622
1412, 153, 149, 184, 622
1413, 181, 621, 623, 625
1414, 181, 622, 621, 625
1415, 172, 168, 624, 628
1416, 191, 233, 176, 621
1417, 621, 620, 623, 625
1418, 191, 185, 233, 621
1419, 201, 199, 195, 627
1420, 150, 156, 158, 627
1421, 149, 179, 184, 622
1422, 623, 624, 168, 628
** ... 354 like lines cut
*ELEMENT, type=C3D4, ELSET=Volume3
1777, 68, 420, 412, 639
1778, 68, 412, 67, 639
1779, 105, 367, 368, 630
1780, 104, 367, 105, 630
1781, 102, 365, 103, 631
1782, 103, 365, 366, 631
1783, 70, 69, 428, 640
1784, 428, 429, 70, 640
1785, 143, 558, 144, 634
1786, 559, 144, 558, 634
1787, 563, 148, 562, 632
1788, 147, 562, 148, 632
1789, 259, 71, 267, 643
1790, 72, 267, 71, 643
1791, 94, 357, 358, 633
1792, 95, 94, 358, 633
1793, 70, 259, 251, 642
1794, 71, 259, 70, 642
1795, 74, 283, 73, 638
1796, 73, 283, 275, 638
** ... 1908 like lines cut
**
** MATERIALS
**
*Material, name=Matrix
*Elastic
10, 0.2
*Material, name=Embedded
*Elastic
55, 0.3